Version 4
SHEET 1 1168 680
WIRE 272 48 272 0
WIRE 272 48 80 48
WIRE 512 48 272 48
WIRE 80 80 80 48
WIRE 512 80 512 48
WIRE 128 96 80 96
WIRE 560 96 512 96
WIRE 128 160 80 160
WIRE 560 160 512 160
WIRE -144 224 -144 192
WIRE 720 224 720 208
WIRE 80 256 80 176
WIRE 240 256 80 256
WIRE 512 256 512 176
WIRE 512 256 320 256
WIRE 512 288 512 256
WIRE 80 304 80 256
WIRE 560 304 512 304
WIRE 128 320 80 320
WIRE 560 368 512 368
WIRE 128 384 80 384
WIRE 80 448 80 400
WIRE 512 448 512 384
WIRE 512 448 80 448
WIRE 80 464 80 448
FLAG 272 -80 0
FLAG 720 304 0
FLAG -144 304 0
FLAG -144 192 A
FLAG 32 160 A
FLAG 720 208 B
FLAG 464 368 A
FLAG 80 464 0
FLAG 464 160 B
FLAG 32 384 B
SYMBOL voltage 272 16 R180
WINDOW 0 24 96 Left 2
WINDOW 3 24 16 Left 2
WINDOW 123 0 0 Left 0
WINDOW 39 0 0 Left 0
SYMATTR InstName V1
SYMATTR Value 15
SYMBOL voltage -144 208 R0
WINDOW 0 24 96 Left 2
WINDOW 3 -274 -7 Left 2
WINDOW 123 0 0 Left 0
WINDOW 39 0 0 Left 0
SYMATTR InstName V2
SYMATTR Value PULSE(0 3.3 0.001 0.001 0.001 0.49 1)
SYMBOL voltage 720 208 R0
WINDOW 0 24 96 Left 2
WINDOW 3 24 16 Left 2
WINDOW 123 0 0 Left 0
WINDOW 39 0 0 Left 0
SYMATTR InstName V3
SYMATTR Value PULSE(0 3.3 0.5 0.001 0.001 0.49 1)
SYMBOL diode 144 160 R180
WINDOW 0 24 64 Left 2
WINDOW 3 24 0 Left 2
SYMATTR InstName D1
SYMBOL nmos 32 80 R0
WINDOW 0 16 31 Left 2
WINDOW 3 -1 98 Left 2
SYMATTR InstName M3
SYMBOL diode 576 160 R180
WINDOW 0 24 64 Left 2
WINDOW 3 24 0 Left 2
SYMATTR InstName D2
SYMBOL nmos 464 80 R0
WINDOW 0 16 31 Left 2
WINDOW 3 -1 98 Left 2
SYMATTR InstName M1
SYMBOL diode 144 384 R180
WINDOW 0 24 64 Left 2
WINDOW 3 24 0 Left 2
SYMATTR InstName D3
SYMBOL nmos 32 304 R0
WINDOW 0 16 31 Left 2
WINDOW 3 -1 98 Left 2
SYMATTR InstName M2
SYMBOL diode 576 368 R180
WINDOW 0 24 64 Left 2
WINDOW 3 24 0 Left 2
SYMATTR InstName D4
SYMBOL nmos 464 288 R0
WINDOW 0 16 31 Left 2
WINDOW 3 -1 98 Left 2
SYMATTR InstName M4
SYMBOL res 336 240 R90
WINDOW 0 0 56 VBottom 2
WINDOW 3 32 56 VTop 2
SYMATTR InstName R1
SYMATTR Value 1
TEXT -360 456 Left 2 !.tran 0 2 0 0.001
